untitled
  ChemPy            3D                             0

162165  0  0  1  0  0  0  0  0999 V2000
   -6.8160   26.0140   40.3650 C   0  0  0  0  0  0  0  0  0  0  0  0
   -7.7150   26.7390   39.5040 O   0  0  0  0  0  0  0  0  0  0  0  0
   -7.2340   25.4720   41.7420 C   0  0  0  0  0  0  0  0  0  0  0  0
   -5.6590   25.8630   39.9530 O   0  0  0  0  0  0  0  0  0  0  0  0
   -6.7480   24.0380   41.9630 C   0  0  0  0  0  0  0  0  0  0  0  0
   -8.6530   27.0660   43.4840 O   0  0  0  0  0  0  0  0  0  0  0  0
   -7.5310   22.9680   41.2040 C   0  0  0  0  0  0  0  0  0  0  0  0
  -11.0260   25.6070   44.0550 O   0  0  0  0  0  0  0  0  0  0  0  0
   -9.0270   23.0850   41.4300 C   0  0  0  0  0  0  0  0  0  0  0  0
  -11.7490   26.6750   41.0290 O   0  0  0  0  0  0  0  0  0  0  0  0
   -9.4920   24.4850   41.1390 C   0  0  0  0  0  0  0  0  0  0  0  0
  -12.8150   27.1950   43.2060 O   0  0  0  0  0  0  0  0  0  0  0  0
   -8.6850   25.3890   41.9850 N   0  0  0  0  0  0  0  0  0  0  0  0
  -14.7640   26.2880   38.0700 O   0  0  0  0  0  0  0  0  0  0  0  0
   -9.2870   26.2230   42.8520 C   0  0  0  0  0  0  0  0  0  0  0  0
   -5.9130   25.4750   30.1850 O   0  0  0  0  0  0  0  0  0  0  0  0
  -10.6450   26.3090   43.1200 C   0  0  0  0  0  0  0  0  0  0  0  0
   -5.5140   27.8840   30.7890 O   0  0  0  0  0  0  0  0  0  0  0  0
  -11.6470   27.1890   42.3610 C   0  0  0  0  0  0  0  0  0  0  0  0
   -5.3940   26.3690   33.0970 O   0  0  0  0  0  0  0  0  0  0  0  0
  -11.1020   28.6230   42.1770 C   0  0  0  0  0  0  0  0  0  0  0  0
   -8.2350   24.5910   37.3340 O   0  0  0  0  0  0  0  0  0  0  0  0
  -12.1020   29.4530   41.3620 C   0  0  0  0  0  0  0  0  0  0  0  0
   -3.1170   30.5270   34.1260 O   0  0  0  0  0  0  0  0  0  0  0  0
  -12.6610   28.7550   40.1170 C   0  0  0  0  0  0  0  0  0  0  0  0
   -1.1670   28.9200   35.5070 O   0  0  0  0  0  0  0  0  0  0  0  0
  -12.7440   27.2250   40.1970 C   0  0  0  0  0  0  0  0  0  0  0  0
  -12.4760   26.5580   38.8440 C   0  0  0  0  0  0  0  0  0  0  0  0
  -13.4910   26.6880   37.7000 C   0  0  0  0  0  0  0  0  0  0  0  0
  -13.0200   25.7940   36.5530 C   0  0  0  0  0  0  0  0  0  0  0  0
  -12.7020   26.3440   35.4000 C   0  0  0  0  0  0  0  0  0  0  0  0
  -12.1830   25.6940   34.1650 C   0  0  0  0  0  0  0  0  0  0  0  0
  -12.2640   26.3510   33.0030 C   0  0  0  0  0  0  0  0  0  0  0  0
  -11.7190   25.8290   31.7600 C   0  0  0  0  0  0  0  0  0  0  0  0
  -10.9670   26.4720   30.8900 C   0  0  0  0  0  0  0  0  0  0  0  0
  -10.5270   25.6960   29.6710 C   0  0  0  0  0  0  0  0  0  0  0  0
   -9.0090   25.7600   29.5460 C   0  0  0  0  0  0  0  0  0  0  0  0
   -8.2170   25.3540   30.7830 C   0  0  0  0  0  0  0  0  0  0  0  0
   -6.8530   26.0230   30.7510 C   0  0  0  0  0  0  0  0  0  0  0  0
   -6.6840   27.4140   31.3560 C   0  0  0  0  0  0  0  0  0  0  0  0
   -6.4260   27.3350   32.8580 C   0  0  0  0  0  0  0  0  0  0  0  0
   -7.6570   26.9730   33.7030 C   0  0  0  0  0  0  0  0  0  0  0  0
   -7.8140   25.8040   34.2810 C   0  0  0  0  0  0  0  0  0  0  0  0
   -8.9140   25.3530   35.1710 C   0  0  0  0  0  0  0  0  0  0  0  0
   -8.5600   25.5570   36.6440 C   0  0  0  0  0  0  0  0  0  0  0  0
   -8.6390   26.9610   37.2620 C   0  0  0  0  0  0  0  0  0  0  0  0
   -7.4550   27.2730   38.2050 C   0  0  0  0  0  0  0  0  0  0  0  0
   -7.3530   28.8080   38.5120 C   0  0  0  0  0  0  0  0  0  0  0  0
   -6.6180   29.5420   37.3930 C   0  0  0  0  0  0  0  0  0  0  0  0
   -5.2420   29.0570   36.9260 C   0  0  0  0  0  0  0  0  0  0  0  0
   -4.8390   29.8360   35.6670 C   0  0  0  0  0  0  0  0  0  0  0  0
   -3.4880   29.5080   35.0150 C   0  0  0  0  0  0  0  0  0  0  0  0
   -2.3540   29.4910   36.0720 C   0  0  0  0  0  0  0  0  0  0  0  0
   -2.7660   28.6820   37.3090 C   0  0  0  0  0  0  0  0  0  0  0  0
   -4.0780   29.1300   37.9140 C   0  0  0  0  0  0  0  0  0  0  0  0
  -10.8560   29.2870   43.5270 C   0  0  0  0  0  0  0  0  0  0  0  0
  -12.8820   24.3040   36.8170 C   0  0  0  0  0  0  0  0  0  0  0  0
  -11.1660   26.3030   28.4590 C   0  0  0  0  0  0  0  0  0  0  0  0
   -8.0660   23.8360   30.8250 C   0  0  0  0  0  0  0  0  0  0  0  0
   -8.6630   28.0830   33.8060 C   0  0  0  0  0  0  0  0  0  0  0  0
   -9.1090   23.8700   34.8640 C   0  0  0  0  0  0  0  0  0  0  0  0
   -8.7360   29.4250   38.6570 C   0  0  0  0  0  0  0  0  0  0  0  0
  -15.8190   26.9460   37.4570 C   0  0  0  0  0  0  0  0  0  0  0  0
   -5.7110   28.9190   29.9030 C   0  0  0  0  0  0  0  0  0  0  0  0
   -4.0020   31.0140   33.1400 C   0  0  0  0  0  0  0  0  0  0  0  0
   -4.9690   26.5370   33.9480 H   0  0  0  0  0  0  0  0  0  0  0  0
   -0.4270   29.5160   35.6490 H   0  0  0  0  0  0  0  0  0  0  0  0
  -12.5930   27.1240   44.1430 H   0  0  0  0  0  0  0  0  0  0  0  0
   -4.3054   30.1956   32.4871 H   0  0  0  0  0  0  0  0  0  0  0  0
   -7.5270   25.4907   41.0044 H   0  0  0  0  0  0  0  0  0  0  0  0
   -6.7825   26.2042   42.4115 H   0  0  0  0  0  0  0  0  0  0  0  0
   -5.4023   26.6269   39.4314 H   0  0  0  0  0  0  0  0  0  0  0  0
   -6.8170   23.8170   43.0281 H   0  0  0  0  0  0  0  0  0  0  0  0
   -8.4327   26.7178   44.3511 H   0  0  0  0  0  0  0  0  0  0  0  0
   -7.2002   21.9852   41.5399 H   0  0  0  0  0  0  0  0  0  0  0  0
  -11.0131   26.1195   44.8666 H   0  0  0  0  0  0  0  0  0  0  0  0
   -9.2549   22.8381   42.4669 H   0  0  0  0  0  0  0  0  0  0  0  0
  -10.5496   24.5877   41.3818 H   0  0  0  0  0  0  0  0  0  0  0  0
   -9.1644   25.2509   42.3743 H   0  0  0  0  0  0  0  0  0  0  0  0
   -5.7075   25.9471   29.3747 H   0  0  0  0  0  0  0  0  0  0  0  0
  -10.8324   26.9896   42.2895 H   0  0  0  0  0  0  0  0  0  0  0  0
  -10.1527   28.5684   41.6441 H   0  0  0  0  0  0  0  0  0  0  0  0
   -8.0554   23.8378   36.7666 H   0  0  0  0  0  0  0  0  0  0  0  0
  -11.6020   30.3672   41.0420 H   0  0  0  0  0  0  0  0  0  0  0  0
  -12.0231   29.0134   39.2718 H   0  0  0  0  0  0  0  0  0  0  0  0
  -13.7520   27.0403   40.5685 H   0  0  0  0  0  0  0  0  0  0  0  0
  -12.3572   25.4920   39.0381 H   0  0  0  0  0  0  0  0  0  0  0  0
  -13.5459   27.7380   37.4127 H   0  0  0  0  0  0  0  0  0  0  0  0
  -13.4734   25.3822   35.6513 H   0  0  0  0  0  0  0  0  0  0  0  0
  -11.9473   27.0887   35.6530 H   0  0  0  0  0  0  0  0  0  0  0  0
  -12.7287   24.7585   34.0423 H   0  0  0  0  0  0  0  0  0  0  0  0
  -11.7761   27.3120   33.1657 H   0  0  0  0  0  0  0  0  0  0  0  0
  -12.5870   25.4975   31.1901 H   0  0  0  0  0  0  0  0  0  0  0  0
  -10.0700   26.8066   31.4111 H   0  0  0  0  0  0  0  0  0  0  0  0
  -10.8290   24.6526   29.7620 H   0  0  0  0  0  0  0  0  0  0  0  0
   -8.7375   26.7861   29.2978 H   0  0  0  0  0  0  0  0  0  0  0  0
   -8.7478   25.6746   31.6794 H   0  0  0  0  0  0  0  0  0  0  0  0
   -6.4420   25.5350   31.6347 H   0  0  0  0  0  0  0  0  0  0  0  0
   -7.5701   28.0244   31.1819 H   0  0  0  0  0  0  0  0  0  0  0  0
   -6.1333   28.3373   33.1707 H   0  0  0  0  0  0  0  0  0  0  0  0
   -7.7917   26.0007   34.1769 H   0  0  0  0  0  0  0  0  0  0  0  0
   -6.9091   25.6674   34.8731 H   0  0  0  0  0  0  0  0  0  0  0  0
   -9.8232   25.9280   34.9952 H   0  0  0  0  0  0  0  0  0  0  0  0
   -7.4972   25.7958   36.6818 H   0  0  0  0  0  0  0  0  0  0  0  0
   -9.5662   27.0398   37.8297 H   0  0  0  0  0  0  0  0  0  0  0  0
   -6.5715   26.8701   37.7098 H   0  0  0  0  0  0  0  0  0  0  0  0
   -6.8007   28.9113   39.4460 H   0  0  0  0  0  0  0  0  0  0  0  0
   -6.4922   30.5731   37.7234 H   0  0  0  0  0  0  0  0  0  0  0  0
   -5.3961   27.9899   36.7661 H   0  0  0  0  0  0  0  0  0  0  0  0
   -4.8234   30.8934   35.9310 H   0  0  0  0  0  0  0  0  0  0  0  0
   -3.6088   28.5423   34.5241 H   0  0  0  0  0  0  0  0  0  0  0  0
   -2.1608   30.5199   36.3755 H   0  0  0  0  0  0  0  0  0  0  0  0
   -1.9855   28.7823   38.0632 H   0  0  0  0  0  0  0  0  0  0  0  0
   -4.3045   28.4914   38.7678 H   0  0  0  0  0  0  0  0  0  0  0  0
  -10.5165   28.5393   44.2438 H   0  0  0  0  0  0  0  0  0  0  0  0
  -12.7553   23.7771   35.8713 H   0  0  0  0  0  0  0  0  0  0  0  0
  -11.4309   25.5150   27.7540 H   0  0  0  0  0  0  0  0  0  0  0  0
   -8.0163   23.4470   29.8080 H   0  0  0  0  0  0  0  0  0  0  0  0
   -8.8992   28.4538   32.8086 H   0  0  0  0  0  0  0  0  0  0  0  0
   -9.2330   23.3187   35.7961 H   0  0  0  0  0  0  0  0  0  0  0  0
   -9.0522   29.8386   37.6994 H   0  0  0  0  0  0  0  0  0  0  0  0
  -16.1446   26.3785   36.5852 H   0  0  0  0  0  0  0  0  0  0  0  0
   -5.9992   28.5168   28.9318 H   0  0  0  0  0  0  0  0  0  0  0  0
   -3.5028   31.7834   32.5510 H   0  0  0  0  0  0  0  0  0  0  0  0
   -5.7284   23.9992   41.5796 H   0  0  0  0  0  0  0  0  0  0  0  0
   -7.3415   23.1065   40.1396 H   0  0  0  0  0  0  0  0  0  0  0  0
   -9.5410   22.3952   40.7606 H   0  0  0  0  0  0  0  0  0  0  0  0
   -9.3691   24.7255   40.0830 H   0  0  0  0  0  0  0  0  0  0  0  0
  -12.9537   29.6331   42.0179 H   0  0  0  0  0  0  0  0  0  0  0  0
  -13.6884   29.1046   40.0150 H   0  0  0  0  0  0  0  0  0  0  0  0
  -11.6102   27.1032   38.4680 H   0  0  0  0  0  0  0  0  0  0  0  0
  -13.7109   26.5600   35.0485 H   0  0  0  0  0  0  0  0  0  0  0  0
  -11.1109   25.6121   34.3442 H   0  0  0  0  0  0  0  0  0  0  0  0
  -13.3352   26.3129   32.8048 H   0  0  0  0  0  0  0  0  0  0  0  0
  -10.9698   25.1516   32.1698 H   0  0  0  0  0  0  0  0  0  0  0  0
  -11.5956   27.2757   30.5066 H   0  0  0  0  0  0  0  0  0  0  0  0
   -8.7476   25.0311   28.7789 H   0  0  0  0  0  0  0  0  0  0  0  0
   -8.0771   25.2236   33.3967 H   0  0  0  0  0  0  0  0  0  0  0  0
   -8.6018   27.6799   36.4435 H   0  0  0  0  0  0  0  0  0  0  0  0
   -7.2510   29.3653   36.5235 H   0  0  0  0  0  0  0  0  0  0  0  0
   -5.5778   29.5449   34.9203 H   0  0  0  0  0  0  0  0  0  0  0  0
   -2.8982   27.6492   36.9866 H   0  0  0  0  0  0  0  0  0  0  0  0
   -3.9636   30.1730   38.2091 H   0  0  0  0  0  0  0  0  0  0  0  0
  -11.7811   29.7396   43.8839 H   0  0  0  0  0  0  0  0  0  0  0  0
  -13.7776   23.9390   37.3198 H   0  0  0  0  0  0  0  0  0  0  0  0
  -10.4676   26.9940   27.9869 H   0  0  0  0  0  0  0  0  0  0  0  0
   -8.9215   23.3993   31.3403 H   0  0  0  0  0  0  0  0  0  0  0  0
   -8.2506   28.8933   34.4072 H   0  0  0  0  0  0  0  0  0  0  0  0
   -8.2374   23.4912   34.3303 H   0  0  0  0  0  0  0  0  0  0  0  0
   -8.7040   30.2187   39.4034 H   0  0  0  0  0  0  0  0  0  0  0  0
  -15.4963   27.9393   37.1449 H   0  0  0  0  0  0  0  0  0  0  0  0
   -4.7888   29.4911   29.8008 H   0  0  0  0  0  0  0  0  0  0  0  0
   -4.8825   31.4397   33.6212 H   0  0  0  0  0  0  0  0  0  0  0  0
  -10.0933   30.0581   43.4184 H   0  0  0  0  0  0  0  0  0  0  0  0
  -12.0127   24.1268   37.4503 H   0  0  0  0  0  0  0  0  0  0  0  0
  -12.0658   26.8424   28.7550 H   0  0  0  0  0  0  0  0  0  0  0  0
   -7.1509   23.5771   31.3575 H   0  0  0  0  0  0  0  0  0  0  0  0
   -9.5709   27.7071   34.2777 H   0  0  0  0  0  0  0  0  0  0  0  0
   -9.9973   23.7413   34.2455 H   0  0  0  0  0  0  0  0  0  0  0  0
   -9.4439   28.6586   38.9726 H   0  0  0  0  0  0  0  0  0  0  0  0
  -16.6469   27.0377   38.1600 H   0  0  0  0  0  0  0  0  0  0  0  0
   -6.5022   29.5697   30.2754 H   0  0  0  0  0  0  0  0  0  0  0  0
  1  2  1  0  0  0  0
  1  3  1  0  0  0  0
  1  4  1  0  0  0  0
  1 70  1  0  0  0  0
  2 47  1  0  0  0  0
  3  5  1  0  0  0  0
  3 13  1  0  0  0  0
  3 71  1  0  0  0  0
  4 72  1  0  0  0  0
  5  7  1  0  0  0  0
  5 73  1  0  0  0  0
  5125  1  0  0  0  0
  6 74  1  0  0  0  0
  7  9  1  0  0  0  0
  7 75  1  0  0  0  0
  7126  1  0  0  0  0
  8 76  1  0  0  0  0
  9 11  1  0  0  0  0
  9 77  1  0  0  0  0
  9127  1  0  0  0  0
 10 27  1  0  0  0  0
 11 13  1  0  0  0  0
 11 78  1  0  0  0  0
 11128  1  0  0  0  0
 12 68  1  0  0  0  0
 13 15  1  0  0  0  0
 14 63  1  0  0  0  0
 15  6  1  0  0  0  0
 15 17  1  0  0  0  0
 15 79  1  0  0  0  0
 16 80  1  0  0  0  0
 17  8  1  0  0  0  0
 17 19  1  0  0  0  0
 17 81  1  0  0  0  0
 18 64  1  0  0  0  0
 19 10  1  0  0  0  0
 19 12  1  0  0  0  0
 19 21  1  0  0  0  0
 20 66  1  0  0  0  0
 21 23  1  0  0  0  0
 21 56  1  0  0  0  0
 21 82  1  0  0  0  0
 22 83  1  0  0  0  0
 23 25  1  0  0  0  0
 23 84  1  0  0  0  0
 23129  1  0  0  0  0
 24 65  1  0  0  0  0
 25 27  1  0  0  0  0
 25 85  1  0  0  0  0
 25130  1  0  0  0  0
 26 67  1  0  0  0  0
 27 28  1  0  0  0  0
 27 86  1  0  0  0  0
 28 29  1  0  0  0  0
 28 87  1  0  0  0  0
 28131  1  0  0  0  0
 29 14  1  0  0  0  0
 29 30  1  0  0  0  0
 29 88  1  0  0  0  0
 30 31  1  0  0  0  0
 30 57  1  0  0  0  0
 30 89  1  0  0  0  0
 31 32  1  0  0  0  0
 31 90  1  0  0  0  0
 31132  1  0  0  0  0
 32 33  1  0  0  0  0
 32 91  1  0  0  0  0
 32133  1  0  0  0  0
 33 34  1  0  0  0  0
 33 92  1  0  0  0  0
 33134  1  0  0  0  0
 34 35  1  0  0  0  0
 34 93  1  0  0  0  0
 34135  1  0  0  0  0
 35 36  1  0  0  0  0
 35 94  1  0  0  0  0
 35136  1  0  0  0  0
 36 37  1  0  0  0  0
 36 58  1  0  0  0  0
 36 95  1  0  0  0  0
 37 38  1  0  0  0  0
 37 96  1  0  0  0  0
 37137  1  0  0  0  0
 38 39  1  0  0  0  0
 38 59  1  0  0  0  0
 38 97  1  0  0  0  0
 39 16  1  0  0  0  0
 39 40  1  0  0  0  0
 39 98  1  0  0  0  0
 40 18  1  0  0  0  0
 40 41  1  0  0  0  0
 40 99  1  0  0  0  0
 41 20  1  0  0  0  0
 41 42  1  0  0  0  0
 41100  1  0  0  0  0
 42 43  1  0  0  0  0
 42 60  1  0  0  0  0
 42101  1  0  0  0  0
 43 44  1  0  0  0  0
 43102  1  0  0  0  0
 43138  1  0  0  0  0
 44 45  1  0  0  0  0
 44 61  1  0  0  0  0
 44103  1  0  0  0  0
 45 22  1  0  0  0  0
 45 46  1  0  0  0  0
 45104  1  0  0  0  0
 46 47  1  0  0  0  0
 46105  1  0  0  0  0
 46139  1  0  0  0  0
 47 48  1  0  0  0  0
 47106  1  0  0  0  0
 48 49  1  0  0  0  0
 48 62  1  0  0  0  0
 48107  1  0  0  0  0
 49 50  1  0  0  0  0
 49108  1  0  0  0  0
 49140  1  0  0  0  0
 50 51  1  0  0  0  0
 50 55  1  0  0  0  0
 50109  1  0  0  0  0
 51 52  1  0  0  0  0
 51110  1  0  0  0  0
 51141  1  0  0  0  0
 52 24  1  0  0  0  0
 52 53  1  0  0  0  0
 52111  1  0  0  0  0
 53 26  1  0  0  0  0
 53 54  1  0  0  0  0
 53112  1  0  0  0  0
 54 55  1  0  0  0  0
 54113  1  0  0  0  0
 54142  1  0  0  0  0
 55114  1  0  0  0  0
 55143  1  0  0  0  0
 56115  1  0  0  0  0
 56144  1  0  0  0  0
 56154  1  0  0  0  0
 57116  1  0  0  0  0
 57145  1  0  0  0  0
 57155  1  0  0  0  0
 58117  1  0  0  0  0
 58146  1  0  0  0  0
 58156  1  0  0  0  0
 59118  1  0  0  0  0
 59147  1  0  0  0  0
 59157  1  0  0  0  0
 60119  1  0  0  0  0
 60148  1  0  0  0  0
 60158  1  0  0  0  0
 61120  1  0  0  0  0
 61149  1  0  0  0  0
 61159  1  0  0  0  0
 62121  1  0  0  0  0
 62150  1  0  0  0  0
 62160  1  0  0  0  0
 63122  1  0  0  0  0
 63151  1  0  0  0  0
 63161  1  0  0  0  0
 64123  1  0  0  0  0
 64152  1  0  0  0  0
 64162  1  0  0  0  0
 65 69  1  0  0  0  0
 65124  1  0  0  0  0
 65153  1  0  0  0  0
M  END
